LTspice 24.0.12 for Windows
Circuit: * C:\_2025-Dev\2-Hardware\AmplifierModel.asc
Start Time: Sat Jan 11 23:57:37 2025
solver = Normal
Maximum thread count: 8
tnom = 27
temp = 27
method = modified trap
Direct Newton iteration for .op point succeeded.
Total elapsed time: 0.074 seconds.

